# AFLOW.org Repositories
# NO_RECURSION  [HEX,HEX,hP12] (STD_CONV doi:10.1016/j.commatsci.2010.05.010)
data_NO_RECURSION
_pd_phase_name NO_RECURSION
_cell_length_a  2.9658595486
_cell_length_b  2.9658595486
_cell_length_c  18.6270697640
_cell_angle_alpha  90.0000000000
_cell_angle_beta  90.0000000000
_cell_angle_gamma  120.0000000000
_symmetry_space_group_name_H-M  'P1'
_symmetry_Int_Tables_Number  1
loop_
_symmetry_equiv_pos_site_id
_symmetry_equiv_pos_as_xyz
  1  x,y,z
loop_
 _atom_site_label
 _atom_site_occupancy
 _atom_site_fract_x
 _atom_site_fract_y
 _atom_site_fract_z
 _atom_site_thermal_displace_type
 _atom_site_B_iso_or_equiv
 _atom_site_type_symbol
Ag1 1.0 0.0000000000 0.0000000000 0.0000000000  Biso 1.0 Ag
Ag2 1.0 0.6666666667 0.3333333333 0.3333333333  Biso 1.0 Ag
Ag3 1.0 0.3333333333 0.6666666667 0.6666666667  Biso 1.0 Ag
Fe4 1.0 0.3333333333 0.6666666667 0.1666666667  Biso 1.0 Fe
Fe5 1.0 -0.0000000000 -0.0000000000 0.5000000000  Biso 1.0 Fe
Fe6 1.0 0.6666666667 0.3333333333 0.8333333333  Biso 1.0 Fe
O7 1.0 -0.0000000000 -0.0000000000 0.1148376439  Biso 1.0 O
O8 1.0 0.6666666667 0.3333333333 0.4481709772  Biso 1.0 O
O9 1.0 0.3333333333 0.6666666667 0.7815043105  Biso 1.0 O
O10 1.0 0.6666666667 0.3333333333 0.2184956895  Biso 1.0 O
O11 1.0 0.3333333333 0.6666666667 0.5518290228  Biso 1.0 O
O12 1.0 -0.0000000000 0.0000000000 0.8851623561  Biso 1.0 O
